powerflow scaled loads and generation PSSE/new_-4.csv
;Bus Name;Area Number;Zone Number;Volt (PU);Volt (KV);Angle (Deg);Gen MW;Gen MVAR;Load MW;Load MVAR;Shunt MW;Shunt MVAR;To Bus Name;MW;MVAR;Transformer Ratio;Transformer Angle (Deg);Percent;Rating
;101     NUC-A       21.600;1;77;1.0200;22.0320;22.6950;749.3604;79.1120;0.0000;0.0000;0.0000;-0.0000;;0.0000;0.0000;;0.0000;0;
;;0;0;0.0000;0.0000;0.0000;0.0000;0.0000;0.0000;0.0000;0.0000;0.0000;151     NUCPANT     500.00    1  1;749.3608;79.1120;1.000UN;0.0000;60;1250
;102     NUC-B       21.600;1;77;1.0200;22.0320;22.6950;749.3604;79.1120;0.0000;0.0000;0.0000;-0.0000;;0.0000;0.0000;;0.0000;0;
;;0;0;0.0000;0.0000;0.0000;0.0000;0.0000;0.0000;0.0000;0.0000;0.0000;151     NUCPANT     500.00    1  1;749.3608;79.1120;1.000UN;0.0000;60;1250
;151     NUCPANT     500.00;1;1;1.0122;506.0841;17.0431;0.0000;0.0000;0.0000;0.0000;0.0000;614.6907;;0.0000;0.0000;;0.0000;0;
;;0;0;0.0000;0.0000;0.0000;0.0000;0.0000;0.0000;0.0000;0.0000;0.0000;101     NUC-A       21.600    1  1;-747.7235;-4.8897;1.000LK;0.0000;60;1250
;;0;0;0.0000;0.0000;0.0000;0.0000;0.0000;0.0000;0.0000;0.0000;0.0000;102     NUC-B       21.600    1  1;-747.7235;-4.8897;1.000LK;0.0000;60;1250
;;0;0;0.0000;0.0000;0.0000;0.0000;0.0000;0.0000;0.0000;0.0000;0.0000;152     MID500      500.00    1  1;474.8294;-170.7861;;0.0000;42;1200
;;0;0;0.0000;0.0000;0.0000;0.0000;0.0000;0.0000;0.0000;0.0000;0.0000;152     MID500      500.00    1  2;474.8294;-170.7861;;0.0000;42;1200
;;0;0;0.0000;0.0000;0.0000;0.0000;0.0000;0.0000;0.0000;0.0000;0.0000;201     HYDRO       500.00    2  1;545.7913;-263.3388;;0.0000;50;1200
;152     MID500      500.00;1;1;1.0192;509.5847;4.8315;0.0000;0.0000;0.0000;0.0000;0.0000;-0.0000;;0.0000;0.0000;;0.0000;0;
;;0;0;0.0000;0.0000;0.0000;0.0000;0.0000;0.0000;0.0000;0.0000;0.0000;151     NUCPANT     500.00    1  1;-469.1056;-89.0055;;0.0000;39;1200
;;0;0;0.0000;0.0000;0.0000;0.0000;0.0000;0.0000;0.0000;0.0000;0.0000;151     NUCPANT     500.00    1  2;-469.1056;-89.0055;;0.0000;39;1200
;;0;0;0.0000;0.0000;0.0000;0.0000;0.0000;0.0000;0.0000;0.0000;0.0000;153     MID230      230.00    1  1;726.3265;287.9770;1.009LK;0.0000;31;2500
;;0;0;0.0000;0.0000;0.0000;0.0000;0.0000;0.0000;0.0000;0.0000;0.0000;202     EAST500     500.00    2  1;-10.7243;32.5898;;0.0000;3;1200
;;0;0;0.0000;0.0000;0.0000;0.0000;0.0000;0.0000;0.0000;0.0000;0.0000;3004     WEST        500.00    5  1;222.6131;-142.5557;;0.0000;0;
;153     MID230      230.00;1;1;0.9961;229.1024;2.7622;0.0000;0.0000;184.4736;100.0000;0.0000;-0.0000;;0.0000;0.0000;;0.0000;0;
;;0;0;0.0000;0.0000;0.0000;0.0000;0.0000;0.0000;0.0000;0.0000;0.0000;152     MID500      500.00    1  1;-726.3265;-258.0364;1.000UN;0.0000;31;2500
;;0;0;0.0000;0.0000;0.0000;0.0000;0.0000;0.0000;0.0000;0.0000;0.0000;154     DOWNTN      230.00    1  1;220.4009;98.7722;;0.0000;81;300
;;0;0;0.0000;0.0000;0.0000;0.0000;0.0000;0.0000;0.0000;0.0000;0.0000;154     DOWNTN      230.00    1  2;183.6674;79.0028;;0.0000;67;300
;;0;0;0.0000;0.0000;0.0000;0.0000;0.0000;0.0000;0.0000;0.0000;0.0000;3006     UPTOWN      230.00    5  1;137.7842;-19.7391;;0.0000;0;
;154     DOWNTN      230.00;1;1;0.9429;216.8682;-2.9813;0.0000;0.0000;922.3682;800.0000;0.0000;-252.6830;;0.0000;0.0000;;0.0000;0;
;;0;0;0.0000;0.0000;0.0000;0.0000;0.0000;0.0000;0.0000;0.0000;0.0000;153     MID230      230.00    1  1;-217.4107;-81.2672;;0.0000;82;300
;;0;0;0.0000;0.0000;0.0000;0.0000;0.0000;0.0000;0.0000;0.0000;0.0000;153     MID230      230.00    1  2;-181.1756;-70.6863;;0.0000;69;300
;;0;0;0.0000;0.0000;0.0000;0.0000;0.0000;0.0000;0.0000;0.0000;0.0000;203     EAST230     230.00    2  1;-116.4770;-53.7173;;0.0000;68;200
;;0;0;0.0000;0.0000;0.0000;0.0000;0.0000;0.0000;0.0000;0.0000;0.0000;205     SUB230      230.00    2  1;-404.5810;-242.1279;;0.0000;83;600
;;0;0;0.0000;0.0000;0.0000;0.0000;0.0000;0.0000;0.0000;0.0000;0.0000;3008     CATDOG      230.00    5  1;-2.7342;-99.5233;;0.0000;26;400
;201     HYDRO       500.00;2;2;1.0400;520.0001;12.4723;0.0000;0.0000;0.0000;0.0000;0.0000;-307.4021;;0.0000;0.0000;;0.0000;0;
;;0;0;0.0000;0.0000;0.0000;0.0000;0.0000;0.0000;0.0000;0.0000;0.0000;151     NUCPANT     500.00    1  1;-542.4859;186.5557;;0.0000;46;1200
;;0;0;0.0000;0.0000;0.0000;0.0000;0.0000;0.0000;0.0000;0.0000;0.0000;202     EAST500     500.00    2  1;561.2349;3.1000;;0.0000;45;1200
;;0;0;0.0000;0.0000;0.0000;0.0000;0.0000;0.0000;0.0000;0.0000;0.0000;205     SUB230      230.00    2  &1;578.4064;53.5466;;0.0000;47;1200
;;0;0;0.0000;0.0000;0.0000;0.0000;0.0000;0.0000;0.0000;0.0000;0.0000;211     HYDRO_G     20.000    2  1;-597.1404;64.1636;1.000LK;0.0000;75;800
;202     EAST500     500.00;2;2;1.0112;505.6081;4.9276;0.0000;0.0000;0.0000;0.0000;0.0000;-0.0000;;0.0000;0.0000;;0.0000;0;
;;0;0;0.0000;0.0000;0.0000;0.0000;0.0000;0.0000;0.0000;0.0000;0.0000;152     MID500      500.00    1  1;10.7769;-129.8425;;0.0000;11;1200
;;0;0;0.0000;0.0000;0.0000;0.0000;0.0000;0.0000;0.0000;0.0000;0.0000;201     HYDRO       500.00    2  1;-555.1816;-137.8493;;0.0000;47;1200
;;0;0;0.0000;0.0000;0.0000;0.0000;0.0000;0.0000;0.0000;0.0000;0.0000;203     EAST230     230.00    2  1;544.4089;267.6920;1.000LK;0.0000;76;800
;203     EAST230     230.00;2;2;0.9699;223.0778;-0.1847;0.0000;0.0000;276.7104;150.0000;0.0000;-44.5601;;0.0000;0.0000;;0.0000;0;
;;0;0;0.0000;0.0000;0.0000;0.0000;0.0000;0.0000;0.0000;0.0000;0.0000;154     DOWNTN      230.00    1  1;117.1966;51.7645;;0.0000;66;200
;;0;0;0.0000;0.0000;0.0000;0.0000;0.0000;0.0000;0.0000;0.0000;0.0000;202     EAST500     500.00    2  1;-542.9693;-209.2048;1.000UN;0.0000;73;800
;;0;0;0.0000;0.0000;0.0000;0.0000;0.0000;0.0000;0.0000;0.0000;0.0000;205     SUB230      230.00    2  1;74.5302;25.9998;;0.0000;41;200
;;0;0;0.0000;0.0000;0.0000;0.0000;0.0000;0.0000;0.0000;0.0000;0.0000;205     SUB230      230.00    2  2;74.5302;25.9998;;0.0000;41;200
;205     SUB230      230.00;2;2;0.9528;219.1500;-2.1722;0.0000;0.0000;1106.8420;700.0000;0.0000;-258.0282;;0.0000;0.0000;;0.0000;0;
;;0;0;0.0000;0.0000;0.0000;0.0000;0.0000;0.0000;0.0000;0.0000;0.0000;154     DOWNTN      230.00    1  1;405.3990;242.2963;;0.0000;83;600
;;0;0;0.0000;0.0000;0.0000;0.0000;0.0000;0.0000;0.0000;0.0000;0.0000;201     HYDRO       500.00    2  &1;-567.0084;-149.8384;1.000UN;0.0000;73;800
;;0;0;0.0000;0.0000;0.0000;0.0000;0.0000;0.0000;0.0000;0.0000;0.0000;203     EAST230     230.00    2  1;-74.1879;-30.3132;;0.0000;42;200
;;0;0;0.0000;0.0000;0.0000;0.0000;0.0000;0.0000;0.0000;0.0000;0.0000;203     EAST230     230.00    2  2;-74.1879;-30.3132;;0.0000;42;200
;;0;0;0.0000;0.0000;0.0000;0.0000;0.0000;0.0000;0.0000;0.0000;0.0000;206     URBGEN      18.000    2  1;-796.8675;-473.8077;1.000LK;0.0000;103;900
;206     URBGEN      18.000;2;2;1.0272;18.4898;3.9857;799.3177;600.0000;0.0000;0.0000;0.0000;-0.0000;;0.0000;0.0000;;0.0000;0;
;;0;0;0.0000;0.0000;0.0000;0.0000;0.0000;0.0000;0.0000;0.0000;0.0000;205     SUB230      230.00    2  1;799.3289;600.0034;1.000UN;0.0000;111;900
;211     HYDRO_G     20.000;2;2;1.0382;20.7631;19.2457;599.4883;6.6651;0.0000;0.0000;0.0000;-0.0000;;0.0000;0.0000;;0.0000;0;
;;0;0;0.0000;0.0000;0.0000;0.0000;0.0000;0.0000;0.0000;0.0000;0.0000;201     HYDRO       500.00    2  1;599.4748;6.7012;1.000UN;0.0000;75;800
;3001     MINE        230.00;5;5;1.0301;236.9325;-0.0362;0.0000;0.0000;0.0000;0.0000;0.0000;-0.0000;;0.0000;0.0000;;0.0000;0;
;;0;0;0.0000;0.0000;0.0000;0.0000;0.0000;0.0000;0.0000;0.0000;0.0000;3002     E. MINE     500.00    5  1;-28.8077;16.5987;1.000LK;0.0000;4;800
;;0;0;0.0000;0.0000;0.0000;0.0000;0.0000;0.0000;0.0000;0.0000;0.0000;3003     S. MINE     230.00    5  1;37.5969;84.7808;;0.0000;0;
;;0;0;0.0000;0.0000;0.0000;0.0000;0.0000;0.0000;0.0000;0.0000;0.0000;3011     MINE_G      13.800    5  1;-8.7891;-101.3795;1.000LK;0.0000;8;1300
;3002     E. MINE     500.00;5;5;1.0278;513.9085;0.2004;0.0000;0.0000;0.0000;0.0000;0.0000;-0.0000;;0.0000;0.0000;;0.0000;0;
;;0;0;0.0000;0.0000;0.0000;0.0000;0.0000;0.0000;0.0000;0.0000;0.0000;3001     MINE        230.00    5  1;28.8108;-16.4424;1.000UN;0.0000;4;800
;;0;0;0.0000;0.0000;0.0000;0.0000;0.0000;0.0000;0.0000;0.0000;0.0000;3004     WEST        500.00    5  1;-28.8112;16.4425;;0.0000;0;
;3003     S. MINE     230.00;5;5;1.0236;235.4191;-0.1996;0.0000;0.0000;0.0000;0.0000;0.0000;-0.0000;;0.0000;0.0000;;0.0000;0;
;;0;0;0.0000;0.0000;0.0000;0.0000;0.0000;0.0000;0.0000;0.0000;0.0000;3001     MINE        230.00    5  1;-37.5969;-84.1324;;0.0000;0;
;;0;0;0.0000;0.0000;0.0000;0.0000;0.0000;0.0000;0.0000;0.0000;0.0000;3005     WEST        230.00    5  1;18.7980;42.0662;;0.0000;0;
;;0;0;0.0000;0.0000;0.0000;0.0000;0.0000;0.0000;0.0000;0.0000;0.0000;3005     WEST        230.00    5  2;18.7980;42.0662;;0.0000;0;
;3004     WEST        500.00;5;5;1.0185;509.2472;1.1216;0.0000;0.0000;0.0000;0.0000;0.0000;-0.0000;;0.0000;0.0000;;0.0000;0;
;;0;0;0.0000;0.0000;0.0000;0.0000;0.0000;0.0000;0.0000;0.0000;0.0000;152     MID500      500.00    1  1;-221.1771;-102.5892;;0.0000;0;
;;0;0;0.0000;0.0000;0.0000;0.0000;0.0000;0.0000;0.0000;0.0000;0.0000;3002     E. MINE     500.00    5  1;28.8839;-25.2103;;0.0000;0;
;;0;0;0.0000;0.0000;0.0000;0.0000;0.0000;0.0000;0.0000;0.0000;0.0000;3005     WEST        230.00    5  1;192.2935;127.7996;1.000LK;0.0000;29;800
;3005     WEST        230.00;5;5;0.9978;229.4952;-0.6116;0.0000;0.0000;92.2368;50.0000;0.0000;-0.0000;;0.0000;0.0000;;0.0000;0;
;;0;0;0.0000;0.0000;0.0000;0.0000;0.0000;0.0000;0.0000;0.0000;0.0000;3003     S. MINE     230.00    5  1;-18.6524;-49.9509;;0.0000;0;
;;0;0;0.0000;0.0000;0.0000;0.0000;0.0000;0.0000;0.0000;0.0000;0.0000;3003     S. MINE     230.00    5  2;-18.6524;-49.9509;;0.0000;0;
;;0;0;0.0000;0.0000;0.0000;0.0000;0.0000;0.0000;0.0000;0.0000;0.0000;3004     WEST        500.00    5  1;-192.0879;-119.4486;1.000UN;0.0000;28;800
;;0;0;0.0000;0.0000;0.0000;0.0000;0.0000;0.0000;0.0000;0.0000;0.0000;3006     UPTOWN      230.00    5  1;-136.9145;17.9184;;0.0000;0;
;;0;0;0.0000;0.0000;0.0000;0.0000;0.0000;0.0000;0.0000;0.0000;0.0000;3008     CATDOG      230.00    5  &1;183.7257;97.1793;;0.0000;0;
;;0;0;0.0000;0.0000;0.0000;0.0000;0.0000;0.0000;0.0000;0.0000;0.0000;3008     CATDOG      230.00    5  1;90.3444;54.2524;;0.0000;0;
;3006     UPTOWN      230.00;5;5;0.9971;229.3225;1.7978;0.0000;0.0000;0.0000;0.0000;0.0000;-0.0000;;0.0000;0.0000;;0.0000;0;
;;0;0;0.0000;0.0000;0.0000;0.0000;0.0000;0.0000;0.0000;0.0000;0.0000;153     MID230      230.00    1  1;-137.5896;19.0960;;0.0000;0;
;;0;0;0.0000;0.0000;0.0000;0.0000;0.0000;0.0000;0.0000;0.0000;0.0000;3005     WEST        230.00    5  1;137.5895;-19.0960;;0.0000;0;
;3008     CATDOG      230.00;5;5;0.9631;221.5117;-3.0902;0.0000;0.0000;184.4736;75.0000;0.0000;-0.0000;;0.0000;0.0000;;0.0000;0;
;;0;0;0.0000;0.0000;0.0000;0.0000;0.0000;0.0000;0.0000;0.0000;0.0000;154     DOWNTN      230.00    1  1;2.9601;74.1139;;0.0000;19;400
;;0;0;0.0000;0.0000;0.0000;0.0000;0.0000;0.0000;0.0000;0.0000;0.0000;3005     WEST        230.00    5  &1;2.0816;-22.4714;;0.0000;0;
;;0;0;0.0000;0.0000;0.0000;0.0000;0.0000;0.0000;0.0000;0.0000;0.0000;3005     WEST        230.00    5  1;-89.6340;-59.8708;;0.0000;0;
;;0;0;0.0000;0.0000;0.0000;0.0000;0.0000;0.0000;0.0000;0.0000;0.0000;3018     CATDOG_G    13.800    5  1;-99.8832;-66.7721;1.000LK;0.0000;80;150
;3011     MINE_G      13.800;5;5;1.0400;14.3520;0.0000;8.8086;102.3553;0.0000;0.0000;0.0000;-0.0000;;0.0000;0.0000;;0.0000;0;
;;0;0;0.0000;0.0000;0.0000;0.0000;0.0000;0.0000;0.0000;0.0000;0.0000;3001     MINE        230.00    5  1;8.8086;102.3553;1.000UN;0.0000;8;1300
;3018     CATDOG_G    13.800;5;5;1.0260;14.1591;1.8305;99.9147;80.0000;0.0000;0.0000;0.0000;-0.0000;;0.0000;0.0000;;0.0000;0;
;;0;0;0.0000;0.0000;0.0000;0.0000;0.0000;0.0000;0.0000;0.0000;0.0000;3008     CATDOG      230.00    5  1;99.9159;80.0004;1.000UN;0.0000;85;150
